*HEADING
cubit(C:/Users/cheny/OneDrive/Documents/GMSH/128_128_block.inp): 04/22/2020: 22:
version: 17.0
**
********************************** P A R T S **********************************
*PART, NAME=Part-Default
**
********************************** N O D E S **********************************
*NODE, NSET=ALLNODES
      82,    4.000000e+00,    4.000000e+00,    0.000000e+00
      83,   -4.000000e+00,    4.000000e+00,    0.000000e+00
      84,    3.500000e+00,    4.000000e+00,    0.000000e+00
      85,    3.000000e+00,    4.000000e+00,    0.000000e+00
      86,    2.500000e+00,    4.000000e+00,    0.000000e+00
      87,    2.000000e+00,    4.000000e+00,    0.000000e+00
      88,    1.500000e+00,    4.000000e+00,    0.000000e+00
      89,    1.000000e+00,    4.000000e+00,    0.000000e+00
      90,    5.000000e-01,    4.000000e+00,    0.000000e+00
      91,    0.000000e+00,    4.000000e+00,    0.000000e+00
      92,   -5.000000e-01,    4.000000e+00,    0.000000e+00
      93,   -1.000000e+00,    4.000000e+00,    0.000000e+00
      94,   -1.500000e+00,    4.000000e+00,    0.000000e+00
      95,   -2.000000e+00,    4.000000e+00,    0.000000e+00
      96,   -2.500000e+00,    4.000000e+00,    0.000000e+00
      97,   -3.000000e+00,    4.000000e+00,    0.000000e+00
      98,   -3.500000e+00,    4.000000e+00,    0.000000e+00
      99,   -4.000000e+00,   -4.000000e+00,    0.000000e+00
     100,   -4.000000e+00,    3.500000e+00,    0.000000e+00
     101,   -4.000000e+00,    3.000000e+00,    0.000000e+00
** ... 16621 like lines cut
**
********************************** E L E M E N T S ****************************
*ELEMENT, TYPE=S4R, ELSET=EB1
       1,    3720,   14388,   14406,   14403
       2,    3724,   14403,   14406,   14398
       3,    3723,   14398,   14406,   14405
       4,    1022,   14405,   14406,   14388
       5,    3714,   14365,   14404,   14401
       6,    3724,   14401,   14404,   14403
       7,    3720,   14403,   14404,   14393
       8,    1023,   14393,   14404,   14365
       9,    3709,   14347,   14402,   14397
      10,    3724,   14397,   14402,   14401
      11,    3714,   14401,   14402,   14369
      12,    1018,   14369,   14402,   14347
      13,    3723,   14399,   14400,   14398
      14,    3724,   14398,   14400,   14397
      15,    3709,   14397,   14400,   14338
      16,     340,   14338,   14400,   14399
      17,    3717,   14375,   14396,   14392
      18,    3722,   14392,   14396,   14385
      19,    3721,   14385,   14396,   14395
      20,    1021,   14395,   14396,   14375
** ... 16364 like lines cut
**
********************************** S I D E S E T S **********************************
*ELSET, ELSET=SS1_E1
      20,      29,      41,      48,     260,     269,     305,     312,    1044,    1053,
    1065,    1072,    1993,    2000,    2036,    2045,    2068,    2077,    2089,    2096,
    3017,    3024,    3060,    3069,    3092,    3101,    3113,    3120,    4041,    4048,
    4084,    4093,    4100,    4109,    4145,    4152,    5073,    5080,    5092,    5101,
    5124,    5133,    5169,    5176,    6097,    6104,    6116,    6125,    6148,    6157,
    6193,    6200,    7121,    7128,    7140,    7149,    7172,    7181,    7217,    7224,
    8145,    8152,    8164,    8173,    8196,    8205,    8241,    8248,    9169,    9176,
    9188,    9197,    9220,    9229,    9265,    9272,   10193,   10200,   10212,   10221,
   10244,   10253,   10289,   10296,   11217,   11224,   11236,   11245,   11268,   11277,
   11313,   11320,   12241,   12248,   12260,   12269,   12292,   12301,   12337,   12344,
   13265,   13272,   13284,   13293,   13316,   13325,   13361,   13368,   14289,   14296,
   14308,   14317,   14340,   14349,   14385,   14392,   15313,   15320,   15332,   15341,
   15364,   15373,   15409,   15416,   16337,   16344,   16356,   16365
*ELSET, ELSET=SS1_E4
      19,      32,      44,      47,     257,     270,     306,     309,    1043,    1056,
    1068,    1071,    1996,    1999,    2035,    2048,    2067,    2080,    2092,    2095,
    3020,    3023,    3059,    3072,    3091,    3104,    3116,    3119,    4044,    4047,
    4083,    4096,    4097,    4110,    4146,    4149,    5074,    5077,    5089,    5102,
    5121,    5134,    5170,    5173,    6098,    6101,    6113,    6126,    6145,    6158,
    6194,    6197,    7122,    7125,    7137,    7150,    7169,    7182,    7218,    7221,
    8146,    8149,    8161,    8174,    8193,    8206,    8242,    8245,    9170,    9173,
    9185,    9198,    9217,    9230,    9266,    9269,   10194,   10197,   10209,   10222,
   10241,   10254,   10290,   10293,   11218,   11221,   11233,   11246,   11265,   11278,
   11314,   11317,   12242,   12245,   12257,   12270,   12289,   12302,   12338,   12341,
   13266,   13269,   13281,   13294,   13313,   13326,   13362,   13365,   14290,   14293,
   14305,   14318,   14337,   14350,   14386,   14389,   15314,   15317,   15329,   15342,
   15361,   15374,   15410,   15413,   16338,   16341,   16353,   16366
*SURFACE, NAME=SS1
SS1_E1, E1
SS1_E4, E4
*ELSET, ELSET=SS2_E1
    1028,    1037,    1049,    1056,    1092,    1101,    1113,    1120,    1156,    1165,
    1177,    1184,    1220,    1229,    1241,    1248,    1284,    1293,    1305,    1312,
    1348,    1357,    1369,    1376,    1412,    1421,    1433,    1440,    1476,    1485,
    1497,    1504,    1540,    1549,    1561,    1568,    1604,    1613,    1625,    1632,
    1668,    1677,    1689,    1696,    1732,    1741,    1753,    1760,    1796,    1805,
    1817,    1824,    1860,    1869,    1881,    1888,    1924,    1933,    1945,    1952,
    1988,    1997,    2009,    2016,    4097,    4104,    4116,    4125,    4161,    4168,
    4180,    4189,    4225,    4232,    4244,    4253,    4289,    4296,    4308,    4317,
    4353,    4360,    4372,    4381,    4417,    4424,    4436,    4445,    4481,    4488,
    4500,    4509,    4545,    4552,    4564,    4573,    4609,    4616,    4628,    4637,
    4673,    4680,    4692,    4701,    4737,    4744,    4756,    4765,    4801,    4808,
    4820,    4829,    4865,    4872,    4884,    4893,    4929,    4936,    4948,    4957,
    4993,    5000,    5012,    5021,    5057,    5064,    5076,    5085
*ELSET, ELSET=SS2_E4
    1027,    1040,    1052,    1055,    1091,    1104,    1116,    1119,    1155,    1168,
    1180,    1183,    1219,    1232,    1244,    1247,    1283,    1296,    1308,    1311,
    1347,    1360,    1372,    1375,    1411,    1424,    1436,    1439,    1475,    1488,
    1500,    1503,    1539,    1552,    1564,    1567,    1603,    1616,    1628,    1631,
    1667,    1680,    1692,    1695,    1731,    1744,    1756,    1759,    1795,    1808,
    1820,    1823,    1859,    1872,    1884,    1887,    1923,    1936,    1948,    1951,
    1987,    2000,    2012,    2015,    4098,    4101,    4113,    4126,    4162,    4165,
    4177,    4190,    4226,    4229,    4241,    4254,    4290,    4293,    4305,    4318,
    4354,    4357,    4369,    4382,    4418,    4421,    4433,    4446,    4482,    4485,
    4497,    4510,    4546,    4549,    4561,    4574,    4610,    4613,    4625,    4638,
    4674,    4677,    4689,    4702,    4738,    4741,    4753,    4766,    4802,    4805,
    4817,    4830,    4866,    4869,    4881,    4894,    4930,    4933,    4945,    4958,
    4994,    4997,    5009,    5022,    5058,    5061,    5073,    5086
*SURFACE, NAME=SS2
SS2_E1, E1
SS2_E4, E4
**
********************************** P R O P E R T I E S ************************
*SHELL SECTION, ELSET=EB1, SECTION INTEGRATION=SIMPSON, MATERIAL=Default-Steel
1.000000e+00
**
*END PART
**
**
**
********************************** E N D   P A R T S **********************************
**
**
********************************** A S S E M B L Y ************************************
**
*ASSEMBLY, NAME=ASSEMBLY1
**
*INSTANCE, NAME=Part-Default_1, PART=Part-Default
*END INSTANCE
**
*END ASSEMBLY
**
**
**
*MATERIAL, NAME = Default-Steel
*ELASTIC, TYPE=ISOTROPIC
2.068000e+05, 2.900000e-01
*DENSITY
7.000000e-06
*CONDUCTIVITY,TYPE=ISO
4.500000e-02
*SPECIFIC HEAT
5.000000e+02
**
**
************************************** H I S T O R Y *************************************
**
*PREPRINT
**
**************************************** S T E P 1 ***************************************
*STEP,INC=100,NAME=Default Set
**
*STATIC
1, 1, 1e-05, 1
**
**
**
**
*END STEP
