*HEADING
cubit(C:/Users/cheny/OneDrive/Documents/GMSH/128_128_block.inp): 04/30/2020: 12:
version: 17.0
**
********************************** P A R T S **********************************
*PART, NAME=Part-Default
**
********************************** N O D E S **********************************
*NODE, NSET=ALLNODES
       1,    5.000000e-01,    5.000000e-01,    0.000000e+00
       2,   -5.000000e-01,    5.000000e-01,    0.000000e+00
       3,   -5.000000e-01,   -5.000000e-01,    0.000000e+00
       4,    5.000000e-01,   -5.000000e-01,    0.000000e+00
       5,    0.000000e+00,    5.000000e-01,    0.000000e+00
       6,   -5.000000e-01,    0.000000e+00,    0.000000e+00
       7,    0.000000e+00,   -5.000000e-01,    0.000000e+00
       8,    5.000000e-01,    0.000000e+00,    0.000000e+00
       9,    0.000000e+00,    0.000000e+00,    0.000000e+00
      10,    2.500000e-01,    5.000000e-01,    0.000000e+00
      11,    0.000000e+00,    2.500000e-01,    0.000000e+00
      12,    2.500000e-01,    0.000000e+00,    0.000000e+00
      13,    5.000000e-01,    2.500000e-01,    0.000000e+00
      14,    2.500000e-01,    2.500000e-01,    0.000000e+00
      15,   -5.000000e-01,    2.500000e-01,    0.000000e+00
      16,   -2.500000e-01,    0.000000e+00,    0.000000e+00
      17,   -2.500000e-01,    5.000000e-01,    0.000000e+00
      18,   -2.500000e-01,    2.500000e-01,    0.000000e+00
      19,   -2.500000e-01,   -5.000000e-01,    0.000000e+00
      20,    0.000000e+00,   -2.500000e-01,    0.000000e+00
** ... 16621 like lines cut
**
********************************** E L E M E N T S ****************************
*ELEMENT, TYPE=S4R, ELSET=EB1
       1,    3632,   14225,   14226,   14224
       2,     256,   14222,   14226,   14225
       3,    3631,   14223,   14226,   14222
       4,    3633,   14224,   14226,   14223
       5,    3628,   14213,   14233,   14230
       6,    3633,   14230,   14233,   14224
       7,    3632,   14224,   14233,   14232
       8,     944,   14232,   14233,   14213
       9,    3620,   14187,   14231,   14227
      10,    3633,   14227,   14231,   14230
      11,    3628,   14230,   14231,   14218
      12,     946,   14218,   14231,   14187
      13,    3631,   14228,   14229,   14223
      14,    3633,   14223,   14229,   14227
      15,    3620,   14227,   14229,   14192
      16,     945,   14192,   14229,   14228
      17,      24,   14178,   14182,   14181
      18,    3618,   14179,   14182,   14178
      19,    3622,   14180,   14182,   14179
      20,    3621,   14181,   14182,   14180
** ... 16364 like lines cut
**
********************************** S I D E S E T S **********************************
*ELSET, ELSET=SS1_E1
     257,     264,     276,     285,     324,     333,     369,     376,     516,     525,
     561,     568,     705,     712,     724,     733,    3209,    3216,    3252,    3261,
    3300,    3309,    3321,    3328,    3876,    3885,    3897,    3904,    4041,    4048,
    4084,    4093,    4100,    4109,    4145,    4152,    4289,    4296,    4308,    4317,
    4865,    4872,    4884,    4893,    4932,    4941,    4977,    4984,    7169,    7176,
    7188,    7197,    7236,    7245,    7281,    7288,    7428,    7437,    7473,    7480,
    7617,    7624,    7636,    7645,    8193,    8200,    8212,    8221,    8260,    8269,
    8305,    8312,    8452,    8461,    8497,    8504,    8641,    8648,    8660,    8669,
    9220,    9229,    9265,    9272,    9409,    9416,    9428,    9437,    9985,    9992,
   10004,   10013,   10052,   10061,   10097,   10104,   12292,   12301,   12337,   12344,
   12481,   12488,   12500,   12509,   13057,   13064,   13076,   13085,   13124,   13133,
   13169,   13176,   15361,   15368,   15380,   15389,   15428,   15437,   15473,   15480,
   15620,   15629,   15665,   15672,   15809,   15816,   15828,   15837
*ELSET, ELSET=SS1_E4
     258,     261,     273,     286,     321,     334,     370,     373,     513,     526,
     562,     565,     706,     709,     721,     734,    3212,    3215,    3251,    3264,
    3299,    3312,    3324,    3327,    3875,    3888,    3900,    3903,    4044,    4047,
    4083,    4096,    4097,    4110,    4146,    4149,    4290,    4293,    4305,    4318,
    4866,    4869,    4881,    4894,    4929,    4942,    4978,    4981,    7170,    7173,
    7185,    7198,    7233,    7246,    7282,    7285,    7425,    7438,    7474,    7477,
    7618,    7621,    7633,    7646,    8194,    8197,    8209,    8222,    8257,    8270,
    8306,    8309,    8449,    8462,    8498,    8501,    8642,    8645,    8657,    8670,
    9217,    9230,    9266,    9269,    9410,    9413,    9425,    9438,    9986,    9989,
   10001,   10014,   10049,   10062,   10098,   10101,   12289,   12302,   12338,   12341,
   12482,   12485,   12497,   12510,   13058,   13061,   13073,   13086,   13121,   13134,
   13170,   13173,   15362,   15365,   15377,   15390,   15425,   15438,   15474,   15477,
   15617,   15630,   15666,   15669,   15810,   15813,   15825,   15838
*SURFACE, NAME=SS1
SS1_E1, E1
SS1_E4, E4
*ELSET, ELSET=SS2_E1
      17,      24,      36,      45,     201,     208,     244,     253,     260,     269,
     305,     312,     449,     456,     468,     477,    1572,    1581,    1593,    1600,
    1737,    1744,    1780,    1789,    1929,    1936,    1972,    1981,    2020,    2029,
    2041,    2048,    4097,    4104,    4116,    4125,    4164,    4173,    4209,    4216,
    4356,    4365,    4401,    4408,    4545,    4552,    4564,    4573,    5124,    5133,
    5169,    5176,    5313,    5320,    5332,    5341,    5889,    5896,    5908,    5917,
    5956,    5965,    6001,    6008,    8196,    8205,    8241,    8248,    8385,    8392,
    8404,    8413,    8961,    8968,    8980,    8989,    9028,    9037,    9073,    9080,
   11265,   11272,   11284,   11293,   11332,   11341,   11377,   11384,   11524,   11533,
   11569,   11576,   11713,   11720,   11732,   11741,   12289,   12296,   12308,   12317,
   12356,   12365,   12401,   12408,   12548,   12557,   12593,   12600,   12737,   12744,
   12756,   12765,   13316,   13325,   13361,   13368,   13505,   13512,   13524,   13533,
   14081,   14088,   14100,   14109,   14148,   14157,   14193,   14200
*ELSET, ELSET=SS2_E4
      18,      21,      33,      46,     204,     207,     243,     256,     257,     270,
     306,     309,     450,     453,     465,     478,    1571,    1584,    1596,    1599,
    1740,    1743,    1779,    1792,    1932,    1935,    1971,    1984,    2019,    2032,
    2044,    2047,    4098,    4101,    4113,    4126,    4161,    4174,    4210,    4213,
    4353,    4366,    4402,    4405,    4546,    4549,    4561,    4574,    5121,    5134,
    5170,    5173,    5314,    5317,    5329,    5342,    5890,    5893,    5905,    5918,
    5953,    5966,    6002,    6005,    8193,    8206,    8242,    8245,    8386,    8389,
    8401,    8414,    8962,    8965,    8977,    8990,    9025,    9038,    9074,    9077,
   11266,   11269,   11281,   11294,   11329,   11342,   11378,   11381,   11521,   11534,
   11570,   11573,   11714,   11717,   11729,   11742,   12290,   12293,   12305,   12318,
   12353,   12366,   12402,   12405,   12545,   12558,   12594,   12597,   12738,   12741,
   12753,   12766,   13313,   13326,   13362,   13365,   13506,   13509,   13521,   13534,
   14082,   14085,   14097,   14110,   14145,   14158,   14194,   14197
*SURFACE, NAME=SS2
SS2_E1, E1
SS2_E4, E4
**
********************************** P R O P E R T I E S ************************
*SHELL SECTION, ELSET=EB1, SECTION INTEGRATION=SIMPSON, MATERIAL=Default-Steel
1.000000e+00
**
*END PART
**
**
**
********************************** E N D   P A R T S **********************************
**
**
********************************** A S S E M B L Y ************************************
**
*ASSEMBLY, NAME=ASSEMBLY1
**
*INSTANCE, NAME=Part-Default_1, PART=Part-Default
*END INSTANCE
**
*END ASSEMBLY
**
**
**
*MATERIAL, NAME = Default-Steel
*ELASTIC, TYPE=ISOTROPIC
2.068000e+05, 2.900000e-01
*DENSITY
7.000000e-06
*CONDUCTIVITY,TYPE=ISO
4.500000e-02
*SPECIFIC HEAT
5.000000e+02
**
**
************************************** H I S T O R Y *************************************
**
*PREPRINT
**
**************************************** S T E P 1 ***************************************
*STEP,INC=100,NAME=Default Set
**
*STATIC
1, 1, 1e-05, 1
**
**
**
**
*END STEP
