*HEADING
cubit(C:/Users/cheny/OneDrive/Documents/GMSH/16_16_block.inp): 04/30/2020: 12:46
version: 17.0
**
********************************** P A R T S **********************************
*PART, NAME=Part-Default
**
********************************** N O D E S **********************************
*NODE, NSET=ALLNODES
       1,    5.000000e-01,    5.000000e-01,    0.000000e+00
       2,   -5.000000e-01,    5.000000e-01,    0.000000e+00
       3,   -5.000000e-01,   -5.000000e-01,    0.000000e+00
       4,    5.000000e-01,   -5.000000e-01,    0.000000e+00
       5,    0.000000e+00,    5.000000e-01,    0.000000e+00
       6,   -5.000000e-01,    0.000000e+00,    0.000000e+00
       7,    0.000000e+00,   -5.000000e-01,    0.000000e+00
       8,    5.000000e-01,    0.000000e+00,    0.000000e+00
       9,    0.000000e+00,    0.000000e+00,    0.000000e+00
      10,    2.500000e-01,    5.000000e-01,    0.000000e+00
      11,    0.000000e+00,    2.500000e-01,    0.000000e+00
      12,    2.500000e-01,    0.000000e+00,    0.000000e+00
      13,    5.000000e-01,    2.500000e-01,    0.000000e+00
      14,    2.500000e-01,    2.500000e-01,    0.000000e+00
      15,   -5.000000e-01,    2.500000e-01,    0.000000e+00
      16,   -2.500000e-01,    0.000000e+00,    0.000000e+00
      17,   -2.500000e-01,    5.000000e-01,    0.000000e+00
      18,   -2.500000e-01,    2.500000e-01,    0.000000e+00
      19,   -2.500000e-01,   -5.000000e-01,    0.000000e+00
      20,    0.000000e+00,   -2.500000e-01,    0.000000e+00
** ... 269 like lines cut
**
********************************** E L E M E N T S ****************************
*ELEMENT, TYPE=S4R, ELSET=EB1
       1,      24,     255,     257,     256
       2,      72,     256,     257,     252
       3,      74,     252,     257,     244
       4,      73,     244,     257,     255
       5,       4,     242,     246,     245
       6,      70,     243,     246,     242
       7,      74,     244,     246,     243
       8,      73,     245,     246,     244
       9,      23,     247,     250,     249
      10,      71,     248,     250,     247
      11,      74,     243,     250,     248
      12,      70,     249,     250,     243
      13,      25,     251,     254,     253
      14,      72,     252,     254,     251
      15,      74,     248,     254,     252
      16,      71,     253,     254,     248
      17,      78,     273,     289,     287
      18,      81,     287,     289,     282
      19,      61,     282,     289,     213
      20,      20,     213,     289,     273
** ... 236 like lines cut
**
********************************** S I D E S E T S **********************************
*ELSET, ELSET=SS1_E1
       5,      12,      52,      61,      68,      77,     113,     120,     129,     136,
     148,     157,     196,     205,     241,     248
*ELSET, ELSET=SS1_E4
       6,       9,      51,      64,      65,      78,     114,     117,     130,     133,
     145,     158,     193,     206,     242,     245
*SURFACE, NAME=SS1
SS1_E1, E1
SS1_E4, E4
*ELSET, ELSET=SS2_E1
       1,       8,      25,      32,      65,      72,      84,      93,     132,     141,
     177,     184,     193,     200,     212,     221
*ELSET, ELSET=SS2_E4
       4,       5,      28,      31,      66,      69,      81,      94,     129,     142,
     178,     181,     194,     197,     209,     222
*SURFACE, NAME=SS2
SS2_E1, E1
SS2_E4, E4
**
********************************** P R O P E R T I E S ************************
*SHELL SECTION, ELSET=EB1, SECTION INTEGRATION=SIMPSON, MATERIAL=Default-Steel
1.000000e+00
**
*END PART
**
**
**
********************************** E N D   P A R T S **********************************
**
**
********************************** A S S E M B L Y ************************************
**
*ASSEMBLY, NAME=ASSEMBLY1
**
*INSTANCE, NAME=Part-Default_1, PART=Part-Default
*END INSTANCE
**
*END ASSEMBLY
**
**
**
*MATERIAL, NAME = Default-Steel
*ELASTIC, TYPE=ISOTROPIC
2.068000e+05, 2.900000e-01
*DENSITY
7.000000e-06
*CONDUCTIVITY,TYPE=ISO
4.500000e-02
*SPECIFIC HEAT
5.000000e+02
**
**
************************************** H I S T O R Y *************************************
**
*PREPRINT
**
**************************************** S T E P 1 ***************************************
*STEP,INC=100,NAME=Default Set
**
*STATIC
1, 1, 1e-05, 1
**
**
**
**
*END STEP
