*HEADING
cubit(C:/Users/cheny/OneDrive/Documents/GMSH/16_16_block.inp): 04/22/2020: 22:28
version: 17.0
**
********************************** P A R T S **********************************
*PART, NAME=Part-Default
**
********************************** N O D E S **********************************
*NODE, NSET=ALLNODES
      82,    4.000000e+00,    4.000000e+00,    0.000000e+00
      83,   -4.000000e+00,    4.000000e+00,    0.000000e+00
      84,    3.500000e+00,    4.000000e+00,    0.000000e+00
      85,    3.000000e+00,    4.000000e+00,    0.000000e+00
      86,    2.500000e+00,    4.000000e+00,    0.000000e+00
      87,    2.000000e+00,    4.000000e+00,    0.000000e+00
      88,    1.500000e+00,    4.000000e+00,    0.000000e+00
      89,    1.000000e+00,    4.000000e+00,    0.000000e+00
      90,    5.000000e-01,    4.000000e+00,    0.000000e+00
      91,    0.000000e+00,    4.000000e+00,    0.000000e+00
      92,   -5.000000e-01,    4.000000e+00,    0.000000e+00
      93,   -1.000000e+00,    4.000000e+00,    0.000000e+00
      94,   -1.500000e+00,    4.000000e+00,    0.000000e+00
      95,   -2.000000e+00,    4.000000e+00,    0.000000e+00
      96,   -2.500000e+00,    4.000000e+00,    0.000000e+00
      97,   -3.000000e+00,    4.000000e+00,    0.000000e+00
      98,   -3.500000e+00,    4.000000e+00,    0.000000e+00
      99,   -4.000000e+00,   -4.000000e+00,    0.000000e+00
     100,   -4.000000e+00,    3.500000e+00,    0.000000e+00
     101,   -4.000000e+00,    3.000000e+00,    0.000000e+00
** ... 269 like lines cut
**
********************************** E L E M E N T S ****************************
*ELEMENT, TYPE=S4R, ELSET=EB1
       1,      82,      84,     146,     145
       2,      84,      85,     147,     146
       3,      85,      86,     148,     147
       4,      86,      87,     149,     148
       5,      87,      88,     150,     149
       6,      88,      89,     151,     150
       7,      89,      90,     152,     151
       8,      90,      91,     153,     152
       9,      91,      92,     154,     153
      10,      92,      93,     155,     154
      11,      93,      94,     156,     155
      12,      94,      95,     157,     156
      13,      95,      96,     158,     157
      14,      96,      97,     159,     158
      15,      97,      98,     160,     159
      16,      98,      83,     100,     160
      17,     145,     146,     161,     144
      18,     146,     147,     162,     161
      19,     147,     148,     163,     162
      20,     148,     149,     164,     163
** ... 236 like lines cut
**
********************************** S I D E S E T S **********************************
*ELSET, ELSET=SS1_E2
      16,      32,      48,      64,      80,      96,     112,     128,     144,     160,
     176,     192,     208,     224,     240,     256
*ELSET, ELSET=SS1_E4
       1,      17,      33,      49,      65,      81,      97,     113,     129,     145,
     161,     177,     193,     209,     225,     241
*SURFACE, NAME=SS1
SS1_E2, E2
SS1_E4, E4
*ELSET, ELSET=SS2_E1
       1,       2,       3,       4,       5,       6,       7,       8,       9,      10,
      11,      12,      13,      14,      15,      16
*ELSET, ELSET=SS2_E3
     241,     242,     243,     244,     245,     246,     247,     248,     249,     250,
     251,     252,     253,     254,     255,     256
*SURFACE, NAME=SS2
SS2_E1, E1
SS2_E3, E3
**
********************************** P R O P E R T I E S ************************
*SHELL SECTION, ELSET=EB1, SECTION INTEGRATION=SIMPSON, MATERIAL=Default-Steel
1.000000e+00
**
*END PART
**
**
**
********************************** E N D   P A R T S **********************************
**
**
********************************** A S S E M B L Y ************************************
**
*ASSEMBLY, NAME=ASSEMBLY1
**
*INSTANCE, NAME=Part-Default_1, PART=Part-Default
*END INSTANCE
**
*END ASSEMBLY
**
**
**
*MATERIAL, NAME = Default-Steel
*ELASTIC, TYPE=ISOTROPIC
2.068000e+05, 2.900000e-01
*DENSITY
7.000000e-06
*CONDUCTIVITY,TYPE=ISO
4.500000e-02
*SPECIFIC HEAT
5.000000e+02
**
**
************************************** H I S T O R Y *************************************
**
*PREPRINT
**
**************************************** S T E P 1 ***************************************
*STEP,INC=100,NAME=Default Set
**
*STATIC
1, 1, 1e-05, 1
**
**
**
**
*END STEP
