*HEADING
cubit(C:/Users/cheny/OneDrive/Documents/GMSH/32_32_block.inp): 04/30/2020: 12:46
version: 17.0
**
********************************** P A R T S **********************************
*PART, NAME=Part-Default
**
********************************** N O D E S **********************************
*NODE, NSET=ALLNODES
       1,    5.000000e-01,    5.000000e-01,    0.000000e+00
       2,   -5.000000e-01,    5.000000e-01,    0.000000e+00
       3,   -5.000000e-01,   -5.000000e-01,    0.000000e+00
       4,    5.000000e-01,   -5.000000e-01,    0.000000e+00
       5,    0.000000e+00,    5.000000e-01,    0.000000e+00
       6,   -5.000000e-01,    0.000000e+00,    0.000000e+00
       7,    0.000000e+00,   -5.000000e-01,    0.000000e+00
       8,    5.000000e-01,    0.000000e+00,    0.000000e+00
       9,    0.000000e+00,    0.000000e+00,    0.000000e+00
      10,    2.500000e-01,    5.000000e-01,    0.000000e+00
      11,    0.000000e+00,    2.500000e-01,    0.000000e+00
      12,    2.500000e-01,    0.000000e+00,    0.000000e+00
      13,    5.000000e-01,    2.500000e-01,    0.000000e+00
      14,    2.500000e-01,    2.500000e-01,    0.000000e+00
      15,   -5.000000e-01,    2.500000e-01,    0.000000e+00
      16,   -2.500000e-01,    0.000000e+00,    0.000000e+00
      17,   -2.500000e-01,    5.000000e-01,    0.000000e+00
      18,   -2.500000e-01,    2.500000e-01,    0.000000e+00
      19,   -2.500000e-01,   -5.000000e-01,    0.000000e+00
      20,    0.000000e+00,   -2.500000e-01,    0.000000e+00
** ... 1069 like lines cut
**
********************************** E L E M E N T S ****************************
*ELEMENT, TYPE=S4R, ELSET=EB1
       1,     256,     945,     946,     944
       2,      24,     942,     946,     945
       3,     255,     943,     946,     942
       4,     257,     944,     946,     943
       5,     252,     933,     953,     950
       6,     257,     950,     953,     944
       7,     256,     944,     953,     952
       8,      72,     952,     953,     933
       9,     244,     907,     951,     947
      10,     257,     947,     951,     950
      11,     252,     950,     951,     938
      12,      74,     938,     951,     907
      13,     255,     948,     949,     943
      14,     257,     943,     949,     947
      15,     244,     947,     949,     912
      16,      73,     912,     949,     948
      17,       4,     898,     902,     901
      18,     242,     899,     902,     898
      19,     246,     900,     902,     899
      20,     245,     901,     902,     900
** ... 1004 like lines cut
**
********************************** S I D E S E T S **********************************
*ELSET, ELSET=SS1_E1
      17,      24,      36,      45,     201,     208,     244,     253,     260,     269,
     305,     312,     449,     456,     468,     477,     513,     520,     532,     541,
     580,     589,     625,     632,     772,     781,     817,     824,     961,     968,
     980,     989
*ELSET, ELSET=SS1_E4
      18,      21,      33,      46,     204,     207,     243,     256,     257,     270,
     306,     309,     450,     453,     465,     478,     514,     517,     529,     542,
     577,     590,     626,     629,     769,     782,     818,     821,     962,     965,
     977,     990
*SURFACE, NAME=SS1
SS1_E1, E1
SS1_E4, E4
*ELSET, ELSET=SS2_E1
       2,      13,      20,      29,     100,     109,     121,     128,     257,     264,
     276,     285,     324,     333,     369,     376,     516,     525,     561,     568,
     705,     712,     724,     733,     769,     776,     788,     797,     836,     845,
     881,     888
*ELSET, ELSET=SS2_E4
       3,      16,      17,      30,      99,     112,     124,     127,     258,     261,
     273,     286,     321,     334,     370,     373,     513,     526,     562,     565,
     706,     709,     721,     734,     770,     773,     785,     798,     833,     846,
     882,     885
*SURFACE, NAME=SS2
SS2_E1, E1
SS2_E4, E4
**
********************************** P R O P E R T I E S ************************
*SHELL SECTION, ELSET=EB1, SECTION INTEGRATION=SIMPSON, MATERIAL=Default-Steel
1.000000e+00
**
*END PART
**
**
**
********************************** E N D   P A R T S **********************************
**
**
********************************** A S S E M B L Y ************************************
**
*ASSEMBLY, NAME=ASSEMBLY1
**
*INSTANCE, NAME=Part-Default_1, PART=Part-Default
*END INSTANCE
**
*END ASSEMBLY
**
**
**
*MATERIAL, NAME = Default-Steel
*ELASTIC, TYPE=ISOTROPIC
2.068000e+05, 2.900000e-01
*DENSITY
7.000000e-06
*CONDUCTIVITY,TYPE=ISO
4.500000e-02
*SPECIFIC HEAT
5.000000e+02
**
**
************************************** H I S T O R Y *************************************
**
*PREPRINT
**
**************************************** S T E P 1 ***************************************
*STEP,INC=100,NAME=Default Set
**
*STATIC
1, 1, 1e-05, 1
**
**
**
**
*END STEP
