*HEADING
cubit(C:/Users/cheny/OneDrive/Documents/GMSH/8_8_block.inp): 04/22/2020: 14:19:5
version: 17.0
**
********************************** P A R T S **********************************
*PART, NAME=Part-Default
**
********************************** N O D E S **********************************
*NODE, NSET=ALLNODES
       1,    4.000000e+00,    4.000000e+00,    0.000000e+00
       2,   -4.000000e+00,    4.000000e+00,    0.000000e+00
       3,    3.000000e+00,    4.000000e+00,    0.000000e+00
       4,    2.000000e+00,    4.000000e+00,    0.000000e+00
       5,    1.000000e+00,    4.000000e+00,    0.000000e+00
       6,    0.000000e+00,    4.000000e+00,    0.000000e+00
       7,   -1.000000e+00,    4.000000e+00,    0.000000e+00
       8,   -2.000000e+00,    4.000000e+00,    0.000000e+00
       9,   -3.000000e+00,    4.000000e+00,    0.000000e+00
      10,   -4.000000e+00,   -4.000000e+00,    0.000000e+00
      11,   -4.000000e+00,    3.000000e+00,    0.000000e+00
      12,   -4.000000e+00,    2.000000e+00,    0.000000e+00
      13,   -4.000000e+00,    1.000000e+00,    0.000000e+00
      14,   -4.000000e+00,    0.000000e+00,    0.000000e+00
      15,   -4.000000e+00,   -1.000000e+00,    0.000000e+00
      16,   -4.000000e+00,   -2.000000e+00,    0.000000e+00
      17,   -4.000000e+00,   -3.000000e+00,    0.000000e+00
      18,    4.000000e+00,   -4.000000e+00,    0.000000e+00
      19,   -3.000000e+00,   -4.000000e+00,    0.000000e+00
      20,   -2.000000e+00,   -4.000000e+00,    0.000000e+00
** ... 61 like lines cut
**
********************************** E L E M E N T S ****************************
*ELEMENT, TYPE=S4R, ELSET=EB1
       1,       1,       3,      33,      32
       2,       3,       4,      34,      33
       3,       4,       5,      35,      34
       4,       5,       6,      36,      35
       5,       6,       7,      37,      36
       6,       7,       8,      38,      37
       7,       8,       9,      39,      38
       8,       9,       2,      11,      39
       9,      32,      33,      40,      31
      10,      33,      34,      41,      40
      11,      34,      35,      42,      41
      12,      35,      36,      43,      42
      13,      36,      37,      44,      43
      14,      37,      38,      45,      44
      15,      38,      39,      46,      45
      16,      39,      11,      12,      46
      17,      31,      40,      47,      30
      18,      40,      41,      48,      47
      19,      41,      42,      49,      48
      20,      42,      43,      50,      49
** ... 44 like lines cut
**
********************************** S I D E S E T S **********************************
*ELSET, ELSET=SS1_E2
       8,      16,      24,      32,      40,      48,      56,      64
*ELSET, ELSET=SS1_E4
       1,       9,      17,      25,      33,      41,      49,      57
*SURFACE, NAME=SS1
SS1_E2, E2
SS1_E4, E4
*ELSET, ELSET=SS2_E1
       1,       2,       3,       4,       5,       6,       7,       8
*ELSET, ELSET=SS2_E3
      57,      58,      59,      60,      61,      62,      63,      64
*SURFACE, NAME=SS2
SS2_E1, E1
SS2_E3, E3
**
********************************** P R O P E R T I E S ************************
*SHELL SECTION, ELSET=EB1, SECTION INTEGRATION=SIMPSON, MATERIAL=Default-Steel
1.000000e+00
**
*END PART
**
**
**
********************************** E N D   P A R T S **********************************
**
**
********************************** A S S E M B L Y ************************************
**
*ASSEMBLY, NAME=ASSEMBLY1
**
*INSTANCE, NAME=Part-Default_1, PART=Part-Default
*END INSTANCE
**
*END ASSEMBLY
**
**
**
*MATERIAL, NAME = Default-Steel
*ELASTIC, TYPE=ISOTROPIC
2.068000e+05, 2.900000e-01
*DENSITY
7.000000e-06
*CONDUCTIVITY,TYPE=ISO
4.500000e-02
*SPECIFIC HEAT
5.000000e+02
**
**
************************************** H I S T O R Y *************************************
**
*PREPRINT
**
**************************************** S T E P 1 ***************************************
*STEP,INC=100,NAME=Default Set
**
*STATIC
1, 1, 1e-05, 1
**
**
**
**
*END STEP
