*HEADING
cubit(C:/Users/cheny/OneDrive/Documents/GMSH/8_8_block.inp): 04/30/2020: 12:45:3
version: 17.0
**
********************************** P A R T S **********************************
*PART, NAME=Part-Default
**
********************************** N O D E S **********************************
*NODE, NSET=ALLNODES
       1,    5.000000e-01,    5.000000e-01,    0.000000e+00
       2,   -5.000000e-01,    5.000000e-01,    0.000000e+00
       3,   -5.000000e-01,   -5.000000e-01,    0.000000e+00
       4,    5.000000e-01,   -5.000000e-01,    0.000000e+00
       5,    0.000000e+00,    5.000000e-01,    0.000000e+00
       6,   -5.000000e-01,    0.000000e+00,    0.000000e+00
       7,    0.000000e+00,   -5.000000e-01,    0.000000e+00
       8,    5.000000e-01,    0.000000e+00,    0.000000e+00
       9,    0.000000e+00,    0.000000e+00,    0.000000e+00
      10,    2.500000e-01,    5.000000e-01,    0.000000e+00
      11,    0.000000e+00,    2.500000e-01,    0.000000e+00
      12,    2.500000e-01,    0.000000e+00,    0.000000e+00
      13,    5.000000e-01,    2.500000e-01,    0.000000e+00
      14,    2.500000e-01,    2.500000e-01,    0.000000e+00
      15,   -5.000000e-01,    2.500000e-01,    0.000000e+00
      16,   -2.500000e-01,    0.000000e+00,    0.000000e+00
      17,   -2.500000e-01,    5.000000e-01,    0.000000e+00
      18,   -2.500000e-01,    2.500000e-01,    0.000000e+00
      19,   -2.500000e-01,   -5.000000e-01,    0.000000e+00
      20,    0.000000e+00,   -2.500000e-01,    0.000000e+00
** ... 61 like lines cut
**
********************************** E L E M E N T S ****************************
*ELEMENT, TYPE=S4R, ELSET=EB1
       1,      24,      73,      74,      72
       2,       4,      70,      74,      73
       3,      23,      71,      74,      70
       4,      25,      72,      74,      71
       5,      20,      61,      81,      78
       6,      25,      78,      81,      72
       7,      24,      72,      81,      80
       8,       7,      80,      81,      61
       9,      12,      35,      79,      75
      10,      25,      75,      79,      78
      11,      20,      78,      79,      66
      12,       9,      66,      79,      35
      13,      23,      76,      77,      71
      14,      25,      71,      77,      75
      15,      12,      75,      77,      40
      16,       8,      40,      77,      76
      17,       1,      26,      30,      29
      18,      10,      27,      30,      26
      19,      14,      28,      30,      27
      20,      13,      29,      30,      28
** ... 44 like lines cut
**
********************************** S I D E S E T S **********************************
*ELSET, ELSET=SS1_E1
       2,      13,      20,      29,      33,      40,      52,      61
*ELSET, ELSET=SS1_E4
       3,      16,      17,      30,      34,      37,      49,      62
*SURFACE, NAME=SS1
SS1_E1, E1
SS1_E4, E4
*ELSET, ELSET=SS2_E1
       1,       8,      17,      24,      36,      45,      49,      56
*ELSET, ELSET=SS2_E4
       2,       7,      18,      21,      33,      46,      50,      53
*SURFACE, NAME=SS2
SS2_E1, E1
SS2_E4, E4
**
********************************** P R O P E R T I E S ************************
*SHELL SECTION, ELSET=EB1, SECTION INTEGRATION=SIMPSON, MATERIAL=Default-Steel
1.000000e+00
**
*END PART
**
**
**
********************************** E N D   P A R T S **********************************
**
**
********************************** A S S E M B L Y ************************************
**
*ASSEMBLY, NAME=ASSEMBLY1
**
*INSTANCE, NAME=Part-Default_1, PART=Part-Default
*END INSTANCE
**
*END ASSEMBLY
**
**
**
*MATERIAL, NAME = Default-Steel
*ELASTIC, TYPE=ISOTROPIC
2.068000e+05, 2.900000e-01
*DENSITY
7.000000e-06
*CONDUCTIVITY,TYPE=ISO
4.500000e-02
*SPECIFIC HEAT
5.000000e+02
**
**
************************************** H I S T O R Y *************************************
**
*PREPRINT
**
**************************************** S T E P 1 ***************************************
*STEP,INC=100,NAME=Default Set
**
*STATIC
1, 1, 1e-05, 1
**
**
**
**
*END STEP
